Distrib/IEEETestCases/ShortCircuitCases/123Bus/ieee123_Power_seq_MVA.txt

SYMMETRICAL COMPONENT POWERS BY CIRCUIT ELEMENT (first 3 phases)                                     Excess Power

Element             Term    P1(MW)   Q1(Mvar)       P2         Q2      P0      Q0       P_Norm      Q_Norm     P_Emerg    Q_Emerg

"Vsource.source"     1       -3.6       -1.3        0.0        0.0    -0.0     0.0
"Vsource.source"     2        0.0        0.0        0.0        0.0     0.0     0.0
"Transformer.reg1a"  1        3.6        1.3       -0.0       -0.0     0.0    -0.0        0.0        0.0        0.0        0.0
"Transformer.reg1a"  2       -3.6       -1.3        0.0        0.0     0.0     0.0
"Line.l115"          1        3.6        1.3       -0.0       -0.0    -0.0    -0.0        1.3        0.5        0.2        0.1
"Line.l115"          2       -3.6       -1.3        0.0        0.0     0.0     0.0
"Line.l1"            1        0.0        0.0        0.0        0.0     0.0     0.0        0.0        0.0        0.0        0.0
"Line.l1"            2        0.0        0.0        0.0        0.0     0.0     0.0
"Line.l2"            1        0.0        0.0        0.0        0.0     0.0     0.0        0.0        0.0        0.0        0.0
"Line.l2"            2        0.0        0.0        0.0        0.0     0.0     0.0
"Line.l3"            1        3.4        1.2       -0.0       -0.0    -0.0    -0.0        1.2        0.4        0.1        0.0
"Line.l3"            2       -3.4       -1.2        0.0        0.0     0.0     0.0
"Line.l4"            1        0.0        0.0        0.0        0.0     0.0     0.0        0.0        0.0        0.0        0.0
"Line.l4"            2        0.0        0.0        0.0        0.0     0.0     0.0
"Line.l5"            1        0.0        0.0        0.0        0.0     0.0     0.0        0.0        0.0        0.0        0.0
"Line.l5"            2        0.0        0.0        0.0        0.0     0.0     0.0
"Line.l6"            1        0.0        0.0        0.0        0.0     0.0     0.0        0.0        0.0        0.0        0.0
"Line.l6"            2        0.0        0.0        0.0        0.0     0.0     0.0
"Line.l7"            1        3.4        1.2       -0.0       -0.0    -0.0    -0.0        1.1        0.4        0.0        0.0
"Line.l7"            2       -3.4       -1.2        0.0        0.0     0.0     0.0
"Line.l8"            1        0.0        0.0        0.0        0.0     0.0     0.0        0.0        0.0        0.0        0.0
"Line.l8"            2        0.0        0.0        0.0        0.0     0.0     0.0
"Line.l9"            1        0.0        0.0        0.0        0.0     0.0     0.0        0.0        0.0        0.0        0.0
"Line.l9"            2        0.0        0.0        0.0        0.0     0.0     0.0
"Line.l10"           1        3.3        1.1       -0.0       -0.0    -0.0    -0.0        0.9        0.3        0.0        0.0
"Line.l10"           2       -3.3       -1.1        0.0        0.0     0.0     0.0
"Line.l11"           1        0.0        0.0        0.0        0.0     0.0     0.0        0.0        0.0        0.0        0.0
"Line.l11"           2        0.0        0.0        0.0        0.0     0.0     0.0
"Line.l12"           1        0.0        0.0        0.0        0.0     0.0     0.0        0.0        0.0        0.0        0.0
"Line.l12"           2        0.0        0.0        0.0        0.0     0.0     0.0
"Line.l13"           1        1.1        0.7       -0.0       -0.0    -0.0    -0.0        0.0        0.0        0.0        0.0
"Line.l13"           2       -1.1       -0.7        0.0        0.0     0.0     0.0
"Line.l14"           1        0.0        0.0        0.0        0.0     0.0     0.0        0.0        0.0        0.0        0.0
"Line.l14"           2        0.0        0.0        0.0        0.0     0.0     0.0
"Line.l15"           1        0.0        0.0        0.0        0.0     0.0     0.0        0.0        0.0        0.0        0.0
"Line.l15"           2        0.0        0.0        0.0        0.0     0.0     0.0
"Line.l16"           1        0.0        0.0        0.0        0.0     0.0     0.0        0.0        0.0        0.0        0.0
"Line.l16"           2        0.0        0.0        0.0        0.0     0.0     0.0
"Line.l17"           1        0.0        0.0        0.0        0.0     0.0     0.0        0.0        0.0        0.0        0.0
"Line.l17"           2        0.0        0.0        0.0        0.0     0.0     0.0
"Line.l18"           1        0.0        0.0        0.0        0.0     0.0     0.0        0.0        0.0        0.0        0.0
"Line.l18"           2        0.0        0.0        0.0        0.0     0.0     0.0
"Line.l19"           1        0.3        0.1        0.0       -0.0    -0.0    -0.0        0.0        0.0        0.0        0.0
"Line.l19"           2       -0.3       -0.1       -0.0        0.0     0.0     0.0
"Line.l20"           1        0.0        0.0        0.0        0.0     0.0     0.0        0.0        0.0        0.0        0.0
"Line.l20"           2        0.0        0.0        0.0        0.0     0.0     0.0
"Line.l21"           1        0.0        0.0        0.0        0.0     0.0     0.0        0.0        0.0        0.0        0.0
"Line.l21"           2        0.0        0.0        0.0        0.0     0.0     0.0
"Line.l22"           1        0.2        0.1        0.0       -0.0    -0.0    -0.0        0.0        0.0        0.0        0.0
"Line.l22"           2       -0.2       -0.1       -0.0        0.0     0.0     0.0
"Line.l23"           1        0.0        0.0        0.0        0.0     0.0     0.0        0.0        0.0        0.0        0.0
"Line.l23"           2        0.0        0.0        0.0        0.0     0.0     0.0
"Line.l24"           1        0.2        0.1       -0.0       -0.0    -0.0    -0.0        0.0        0.0        0.0        0.0
"Line.l24"           2       -0.2       -0.1        0.0        0.0     0.0     0.0
"Line.l25"           1        0.0        0.0        0.0        0.0     0.0     0.0        0.0        0.0        0.0        0.0
"Line.l25"           2        0.0        0.0        0.0        0.0     0.0     0.0
"Line.l26"           1        0.1        0.1       -0.0       -0.0    -0.0    -0.0        0.0        0.0        0.0        0.0
"Line.l26"           2       -0.1       -0.1        0.0        0.0     0.0     0.0
"Line.l27"           1        0.0        0.0        0.0        0.0     0.0     0.0        0.0        0.0        0.0        0.0
"Line.l27"           2        0.0        0.0        0.0        0.0     0.0     0.0
"Line.l28"           1        0.0        0.0        0.0        0.0     0.0     0.0        0.0        0.0        0.0        0.0
"Line.l28"           2        0.0        0.0        0.0        0.0     0.0     0.0
"Line.l29"           1        0.0        0.0        0.0        0.0     0.0     0.0        0.0        0.0        0.0        0.0
"Line.l29"           2        0.0        0.0        0.0        0.0     0.0     0.0
"Line.l30"           1        0.1        0.0        0.0       -0.0    -0.0    -0.0        0.0        0.0        0.0        0.0
"Line.l30"           2       -0.1       -0.0       -0.0        0.0     0.0     0.0
"Line.l31"           1        0.0        0.0        0.0       -0.0    -0.0     0.0        0.0        0.0        0.0        0.0
"Line.l31"           2       -0.0       -0.0       -0.0        0.0     0.0    -0.0
"Line.l32"           1        0.0       -0.0       -0.0        0.0     0.0    -0.0        0.0        0.0        0.0        0.0
"Line.l32"           2        0.0       -0.0        0.0       -0.0    -0.0     0.0
"Line.l33"           1        0.0        0.0        0.0        0.0     0.0     0.0        0.0        0.0        0.0        0.0
"Line.l33"           2        0.0        0.0        0.0        0.0     0.0     0.0
"Line.l34"           1        0.0        0.0        0.0        0.0     0.0     0.0        0.0        0.0        0.0        0.0
"Line.l34"           2        0.0        0.0        0.0        0.0     0.0     0.0
"Line.l35"           1        0.0        0.0        0.0        0.0     0.0     0.0        0.0        0.0        0.0        0.0
"Line.l35"           2        0.0        0.0        0.0        0.0     0.0     0.0
"Line.l36"           1        0.6        0.4       -0.0       -0.0     0.0    -0.0        0.0        0.0        0.0        0.0
"Line.l36"           2       -0.6       -0.4        0.0        0.0    -0.0     0.0
"Line.l37"           1        0.0        0.0        0.0        0.0     0.0     0.0        0.0        0.0        0.0        0.0
"Line.l37"           2        0.0        0.0        0.0        0.0     0.0     0.0
"Line.l38"           1        0.0        0.0        0.0        0.0     0.0     0.0        0.0        0.0        0.0        0.0
"Line.l38"           2        0.0        0.0        0.0        0.0     0.0     0.0
"Line.l39"           1        0.0        0.0        0.0        0.0     0.0     0.0        0.0        0.0        0.0        0.0
"Line.l39"           2        0.0        0.0        0.0        0.0     0.0     0.0
"Line.l40"           1        0.0        0.0        0.0        0.0     0.0     0.0        0.0        0.0        0.0        0.0
"Line.l40"           2        0.0        0.0        0.0        0.0     0.0     0.0
"Line.l41"           1        0.6        0.4       -0.0        0.0     0.0    -0.0        0.0        0.0        0.0        0.0
"Line.l41"           2       -0.6       -0.4        0.0       -0.0    -0.0     0.0
"Line.l42"           1        0.0        0.0        0.0        0.0     0.0     0.0        0.0        0.0        0.0        0.0
"Line.l42"           2        0.0        0.0        0.0        0.0     0.0     0.0
"Line.l43"           1        0.6        0.4       -0.0       -0.0    -0.0    -0.0        0.0        0.0        0.0        0.0
"Line.l43"           2       -0.6       -0.4        0.0        0.0     0.0     0.0
"Line.l44"           1        0.0        0.0        0.0        0.0     0.0     0.0        0.0        0.0        0.0        0.0
"Line.l44"           2        0.0        0.0        0.0        0.0     0.0     0.0
"Line.l45"           1        0.5        0.4        0.0        0.0     0.0     0.0        0.0        0.0        0.0        0.0
"Line.l45"           2       -0.5       -0.4       -0.0       -0.0    -0.0    -0.0
"Line.l46"           1        0.0        0.0        0.0        0.0     0.0     0.0        0.0        0.0        0.0        0.0
"Line.l46"           2        0.0        0.0        0.0        0.0     0.0     0.0
"Line.l47"           1        0.2        0.2        0.0        0.0     0.0     0.0        0.0        0.0        0.0        0.0
"Line.l47"           2       -0.2       -0.2       -0.0       -0.0    -0.0    -0.0
"Line.l48"           1        0.2        0.1        0.0        0.0     0.0     0.0        0.0        0.0        0.0        0.0
"Line.l48"           2       -0.2       -0.1       -0.0       -0.0    -0.0    -0.0
"Line.l49"           1        0.1        0.0        0.0       -0.0    -0.0     0.0        0.0        0.0        0.0        0.0
"Line.l49"           2       -0.1       -0.0       -0.0        0.0     0.0    -0.0
"Line.l50"           1        0.0        0.0       -0.0       -0.0    -0.0    -0.0        0.0        0.0        0.0        0.0
"Line.l50"           2       -0.0       -0.0        0.0        0.0     0.0     0.0
"Line.l51"           1       -0.0       -0.0        0.0       -0.0    -0.0     0.0        0.0        0.0        0.0        0.0
"Line.l51"           2       -0.0        0.0       -0.0        0.0     0.0    -0.0
"Line.l52"           1        2.0        0.3       -0.0       -0.0    -0.0    -0.0        0.0        0.0        0.0        0.0
"Line.l52"           2       -2.0       -0.3        0.0        0.0     0.0     0.0
"Line.l53"           1        1.9        0.3       -0.0       -0.0    -0.0    -0.0        0.0        0.0        0.0        0.0
"Line.l53"           2       -1.9       -0.3        0.0        0.0     0.0     0.0
"Line.l54"           1        0.0        0.0       -0.0        0.0     0.0    -0.0        0.0        0.0        0.0        0.0
"Line.l54"           2       -0.0       -0.0        0.0       -0.0    -0.0     0.0
"Line.l55"           1        1.9        0.3       -0.0       -0.0    -0.0    -0.0        0.0        0.0        0.0        0.0
"Line.l55"           2       -1.9       -0.3        0.0        0.0     0.0     0.0
"Line.l56"           1        0.0        0.0       -0.0        0.0     0.0     0.0        0.0        0.0        0.0        0.0
"Line.l56"           2       -0.0       -0.0        0.0       -0.0    -0.0    -0.0
"Line.l57"           1        0.0        0.0        0.0        0.0     0.0     0.0        0.0        0.0        0.0        0.0
"Line.l57"           2        0.0        0.0        0.0        0.0     0.0     0.0
"Line.l58"           1        1.8        0.2       -0.0       -0.0    -0.0    -0.0        0.0        0.0        0.0        0.0
"Line.l58"           2       -1.8       -0.2        0.0        0.0     0.0     0.0
"Line.l59"           1        0.0        0.0        0.0        0.0     0.0     0.0        0.0        0.0        0.0        0.0
"Line.l59"           2        0.0        0.0        0.0        0.0     0.0     0.0
"Line.l60"           1        0.0       -0.0        0.0        0.0     0.0     0.0        0.0        0.0        0.0        0.0
"Line.l60"           2       -0.0       -0.0       -0.0       -0.0    -0.0    -0.0
"Line.l61"           1        0.4        0.2        0.0       -0.0    -0.0     0.0        0.0        0.0        0.0        0.0
"Line.l61"           2       -0.4       -0.2       -0.0        0.0     0.0    -0.0
"Line.l62"           1        0.3        0.2        0.0       -0.0     0.0     0.0        0.0        0.0        0.0        0.0
"Line.l62"           2       -0.3       -0.2       -0.0        0.0    -0.0    -0.0
"Line.l63"           1        0.3        0.2        0.0        0.0    -0.0     0.0        0.0        0.0        0.0        0.0
"Line.l63"           2       -0.3       -0.2       -0.0       -0.0     0.0    -0.0
"Line.l64"           1        0.2        0.1        0.0       -0.0    -0.0     0.0        0.0        0.0        0.0        0.0
"Line.l64"           2       -0.2       -0.1       -0.0        0.0     0.0    -0.0
"Line.l65"           1        0.1        0.0        0.0       -0.0    -0.0     0.0        0.0        0.0        0.0        0.0
"Line.l65"           2       -0.1       -0.0       -0.0        0.0     0.0    -0.0
"Line.l66"           1        0.0        0.0        0.0        0.0     0.0     0.0        0.0        0.0        0.0        0.0
"Line.l66"           2        0.0        0.0        0.0        0.0     0.0     0.0
"Line.l67"           1        0.9       -0.3       -0.0        0.0    -0.0     0.0        0.0        0.0        0.0        0.0
"Line.l67"           2       -0.9        0.3        0.0       -0.0     0.0    -0.0
"Line.l68"           1        0.4        0.2        0.0       -0.0     0.0    -0.0        0.0        0.0        0.0        0.0
"Line.l68"           2       -0.4       -0.2       -0.0        0.0    -0.0     0.0
"Line.l69"           1        0.0        0.0        0.0        0.0     0.0     0.0        0.0        0.0        0.0        0.0
"Line.l69"           2        0.0        0.0        0.0        0.0     0.0     0.0
"Line.l70"           1        0.0        0.0        0.0        0.0     0.0     0.0        0.0        0.0        0.0        0.0
"Line.l70"           2        0.0        0.0        0.0        0.0     0.0     0.0
"Line.l71"           1        0.0        0.0        0.0        0.0     0.0     0.0        0.0        0.0        0.0        0.0
"Line.l71"           2        0.0        0.0        0.0        0.0     0.0     0.0
"Line.l72"           1        0.0        0.0        0.0        0.0     0.0     0.0        0.0        0.0        0.0        0.0
"Line.l72"           2        0.0        0.0        0.0        0.0     0.0     0.0
"Line.l73"           1        0.8       -0.4       -0.0       -0.0     0.0     0.0        0.0        0.0        0.0        0.0
"Line.l73"           2       -0.8        0.4        0.0        0.0    -0.0    -0.0
"Line.l74"           1        0.0        0.0        0.0        0.0     0.0     0.0        0.0        0.0        0.0        0.0
"Line.l74"           2        0.0        0.0        0.0        0.0     0.0     0.0
"Line.l75"           1        0.0        0.0        0.0        0.0     0.0     0.0        0.0        0.0        0.0        0.0
"Line.l75"           2        0.0        0.0        0.0        0.0     0.0     0.0
"Line.l76"           1        0.2       -0.5        0.0       -0.0     0.0    -0.0        0.0        0.0        0.0        0.0
"Line.l76"           2       -0.2        0.5       -0.0        0.0    -0.0     0.0
"Line.l77"           1        0.3       -0.0       -0.0       -0.0     0.0     0.0        0.0        0.0        0.0        0.0
"Line.l77"           2       -0.3        0.0        0.0        0.0    -0.0    -0.0
"Line.l78"           1        0.2       -0.5        0.0       -0.0    -0.0    -0.0        0.0        0.0        0.0        0.0
"Line.l78"           2       -0.2        0.5       -0.0        0.0     0.0     0.0
"Line.l79"           1        0.0        0.0        0.0       -0.0     0.0    -0.0        0.0        0.0        0.0        0.0
"Line.l79"           2       -0.0       -0.0       -0.0        0.0    -0.0     0.0
"Line.l80"           1        0.2       -0.6        0.0        0.0    -0.0    -0.0        0.0        0.0        0.0        0.0
"Line.l80"           2       -0.2        0.6       -0.0       -0.0     0.0     0.0
"Line.l81"           1        0.1       -0.6        0.0        0.0    -0.0    -0.0        0.0        0.0        0.0        0.0
"Line.l81"           2       -0.1        0.6       -0.0       -0.0     0.0     0.0
"Line.l82"           1        0.1       -0.6        0.0       -0.0     0.0    -0.0        0.0        0.0        0.0        0.0
"Line.l82"           2       -0.1        0.6       -0.0        0.0    -0.0     0.0
"Line.l83"           1        0.0        0.0        0.0        0.0     0.0     0.0        0.0        0.0        0.0        0.0
"Line.l83"           2        0.0        0.0        0.0        0.0     0.0     0.0
"Line.l84"           1        0.0       -0.6        0.0        0.0    -0.0    -0.0        0.0        0.0        0.0        0.0
"Line.l84"           2       -0.0        0.6       -0.0       -0.0     0.0     0.0
"Line.l85"           1        0.0        0.0        0.0        0.0     0.0     0.0        0.0        0.0        0.0        0.0
"Line.l85"           2        0.0        0.0        0.0        0.0     0.0     0.0
"Line.l86"           1        0.2       -0.0       -0.0       -0.0     0.0     0.0        0.0        0.0        0.0        0.0
"Line.l86"           2       -0.2        0.0        0.0        0.0    -0.0    -0.0
"Line.l87"           1        0.0        0.0        0.0        0.0     0.0     0.0        0.0        0.0        0.0        0.0
"Line.l87"           2        0.0        0.0        0.0        0.0     0.0     0.0
"Line.l88"           1        0.2       -0.0        0.0        0.0     0.0     0.0        0.0        0.0        0.0        0.0
"Line.l88"           2       -0.2        0.0       -0.0       -0.0    -0.0    -0.0
"Line.l89"           1        0.0        0.0        0.0        0.0     0.0     0.0        0.0        0.0        0.0        0.0
"Line.l89"           2        0.0        0.0        0.0        0.0     0.0     0.0
"Line.l90"           1        0.1        0.0        0.0       -0.0     0.0     0.0        0.0        0.0        0.0        0.0
"Line.l90"           2       -0.1       -0.0       -0.0        0.0    -0.0    -0.0
"Line.l91"           1        0.0        0.0        0.0        0.0     0.0     0.0        0.0        0.0        0.0        0.0
"Line.l91"           2        0.0        0.0        0.0        0.0     0.0     0.0
"Line.l92"           1        0.1        0.0       -0.0       -0.0     0.0     0.0        0.0        0.0        0.0        0.0
"Line.l92"           2       -0.1       -0.0        0.0        0.0    -0.0    -0.0
"Line.l93"           1        0.0        0.0        0.0        0.0     0.0     0.0        0.0        0.0        0.0        0.0
"Line.l93"           2        0.0        0.0        0.0        0.0     0.0     0.0
"Line.l94"           1        0.0        0.0       -0.0       -0.0     0.0     0.0        0.0        0.0        0.0        0.0
"Line.l94"           2       -0.0       -0.0        0.0        0.0    -0.0    -0.0
"Line.l95"           1        0.0        0.0        0.0        0.0     0.0     0.0        0.0        0.0        0.0        0.0
"Line.l95"           2        0.0        0.0        0.0        0.0     0.0     0.0
"Line.l96"           1        0.1        0.1        0.0        0.0    -0.0     0.0        0.0        0.0        0.0        0.0
"Line.l96"           2       -0.1       -0.1       -0.0       -0.0     0.0    -0.0
"Line.l97"           1        0.1        0.0       -0.0        0.0    -0.0     0.0        0.0        0.0        0.0        0.0
"Line.l97"           2       -0.1       -0.0        0.0       -0.0     0.0    -0.0
"Line.l98"           1        0.0        0.0        0.0        0.0    -0.0    -0.0        0.0        0.0        0.0        0.0
"Line.l98"           2       -0.0       -0.0       -0.0       -0.0     0.0     0.0
"Line.l99"           1       -0.0       -0.0        0.0       -0.0    -0.0    -0.0        0.0        0.0        0.0        0.0
"Line.l99"           2        0.0       -0.0       -0.0       -0.0    -0.0     0.0
"Line.l100"          1        0.0        0.0        0.0        0.0     0.0     0.0        0.0        0.0        0.0        0.0
"Line.l100"          2        0.0        0.0        0.0        0.0     0.0     0.0
"Line.l101"          1        0.2        0.1       -0.0       -0.0     0.0    -0.0        0.0        0.0        0.0        0.0
"Line.l101"          2       -0.2       -0.1        0.0        0.0    -0.0     0.0
"Line.l102"          1        0.0        0.0        0.0        0.0     0.0     0.0        0.0        0.0        0.0        0.0
"Line.l102"          2        0.0        0.0        0.0        0.0     0.0     0.0
"Line.l103"          1        0.0        0.0        0.0        0.0     0.0     0.0        0.0        0.0        0.0        0.0
"Line.l103"          2        0.0        0.0        0.0        0.0     0.0     0.0
"Line.l104"          1        0.0        0.0        0.0        0.0     0.0     0.0        0.0        0.0        0.0        0.0
"Line.l104"          2        0.0        0.0        0.0        0.0     0.0     0.0
"Line.l105"          1        0.1        0.1        0.0       -0.0     0.0    -0.0        0.0        0.0        0.0        0.0
"Line.l105"          2       -0.1       -0.1       -0.0        0.0    -0.0     0.0
"Line.l106"          1        0.0        0.0        0.0        0.0     0.0     0.0        0.0        0.0        0.0        0.0
"Line.l106"          2        0.0        0.0        0.0        0.0     0.0     0.0
"Line.l107"          1        0.0        0.0        0.0        0.0     0.0     0.0        0.0        0.0        0.0        0.0
"Line.l107"          2        0.0        0.0        0.0        0.0     0.0     0.0
"Line.l108"          1       -0.0       -0.0        0.0       -0.0    -0.0    -0.0        0.0        0.0        0.0        0.0
"Line.l108"          2        0.0       -0.0        0.0        0.0     0.0    -0.0
"Line.l109"          1        0.0        0.0        0.0        0.0     0.0     0.0        0.0        0.0        0.0        0.0
"Line.l109"          2        0.0        0.0        0.0        0.0     0.0     0.0
"Line.l110"          1        0.0        0.0        0.0        0.0     0.0     0.0        0.0        0.0        0.0        0.0
"Line.l110"          2        0.0        0.0        0.0        0.0     0.0     0.0
"Line.l111"          1        0.0        0.0        0.0        0.0     0.0     0.0        0.0        0.0        0.0        0.0
"Line.l111"          2        0.0        0.0        0.0        0.0     0.0     0.0
"Line.l112"          1        0.0        0.0        0.0        0.0     0.0     0.0        0.0        0.0        0.0        0.0
"Line.l112"          2        0.0        0.0        0.0        0.0     0.0     0.0
"Line.l113"          1        0.0        0.0        0.0        0.0     0.0     0.0        0.0        0.0        0.0        0.0
"Line.l113"          2        0.0        0.0        0.0        0.0     0.0     0.0
"Line.l114"          1        0.8        0.5       -0.0        0.0     0.0    -0.0        0.0        0.0        0.0        0.0
"Line.l114"          2       -0.8       -0.5        0.0       -0.0    -0.0     0.0
"Line.l116"          1        2.0        0.3       -0.0       -0.0    -0.0    -0.0        0.0        0.0        0.0        0.0
"Line.l116"          2       -2.0       -0.3        0.0        0.0     0.0     0.0
"Line.l117"          1        1.4       -0.0        0.0       -0.0     0.0    -0.0        0.0        0.0        0.0        0.0
"Line.l117"          2       -1.4        0.0       -0.0        0.0    -0.0     0.0
"Line.l118"          1        0.3        0.2        0.0       -0.0     0.0    -0.0        0.0        0.0        0.0        0.0
"Line.l118"          2       -0.3       -0.2       -0.0        0.0    -0.0     0.0
"Line.sw1"           1        3.6        1.3       -0.0       -0.0    -0.0    -0.0        1.3        0.5        0.2        0.1
"Line.sw1"           2       -3.6       -1.3        0.0        0.0     0.0     0.0
"Line.sw2"           1        2.0        0.3       -0.0       -0.0    -0.0    -0.0        0.0        0.0        0.0        0.0
"Line.sw2"           2       -2.0       -0.3        0.0        0.0     0.0     0.0
"Line.sw3"           1        0.8        0.5       -0.0        0.0     0.0    -0.0        0.0        0.0        0.0        0.0
"Line.sw3"           2       -0.8       -0.5        0.0       -0.0    -0.0     0.0
"Line.sw4"           1        1.4       -0.0       -0.0       -0.0    -0.0    -0.0        0.0        0.0        0.0        0.0
"Line.sw4"           2       -1.4        0.0        0.0        0.0     0.0     0.0
"Line.sw5"           1        0.3        0.2        0.0       -0.0     0.0    -0.0        0.0        0.0        0.0        0.0
"Line.sw5"           2       -0.3       -0.2       -0.0        0.0    -0.0     0.0
"Line.sw6"           1        0.0        0.0        0.0        0.0     0.0     0.0        0.0        0.0        0.0        0.0
"Line.sw6"           2       -0.0       -0.0       -0.0       -0.0    -0.0    -0.0
"Line.sw7"           1        0.0       -0.0       -0.0        0.0    -0.0     0.0        0.0        0.0        0.0        0.0
"Line.sw7"           2        0.0       -0.0       -0.0        0.0    -0.0     0.0
"Line.sw8"           1        0.0        0.0        0.0        0.0     0.0     0.0        0.0        0.0        0.0        0.0
"Line.sw8"           2        0.0        0.0        0.0        0.0     0.0     0.0
"Transformer.xfm1"   1        0.0        0.0       -0.0        0.0    -0.0     0.0        0.0        0.0        0.0        0.0
"Transformer.xfm1"   2       -0.0       -0.0       -0.0        0.0    -0.0     0.0
"Capacitor.c83"      1       -0.0       -0.6       -0.0       -0.0     0.0    -0.0        0.0        0.0        0.0        0.0
"Capacitor.c83"      2       -0.0        0.0       -0.0        0.0    -0.0     0.0
"Capacitor.c88a"     1        0.0        0.0        0.0        0.0     0.0     0.0        0.0        0.0        0.0        0.0
"Capacitor.c88a"     2        0.0        0.0        0.0        0.0     0.0     0.0
"Capacitor.c90b"     1        0.0        0.0        0.0        0.0     0.0     0.0        0.0        0.0        0.0        0.0
"Capacitor.c90b"     2        0.0        0.0        0.0        0.0     0.0     0.0
"Capacitor.c92c"     1        0.0        0.0        0.0        0.0     0.0     0.0        0.0        0.0        0.0        0.0
"Capacitor.c92c"     2        0.0        0.0        0.0        0.0     0.0     0.0
"Transformer.reg2a"  1        0.0        0.0        0.0        0.0     0.0     0.0        0.0        0.0        0.0        0.0
"Transformer.reg2a"  2        0.0        0.0        0.0        0.0     0.0     0.0
"Transformer.reg3a"  1        0.0        0.0        0.0        0.0     0.0     0.0        0.0        0.0        0.0        0.0
"Transformer.reg3a"  2        0.0        0.0        0.0        0.0     0.0     0.0
"Transformer.reg4a"  1        0.0        0.0        0.0        0.0     0.0     0.0        0.0        0.0        0.0        0.0
"Transformer.reg4a"  2        0.0        0.0        0.0        0.0     0.0     0.0
"Transformer.reg3c"  1        0.0        0.0        0.0        0.0     0.0     0.0        0.0        0.0        0.0        0.0
"Transformer.reg3c"  2        0.0        0.0        0.0        0.0     0.0     0.0
"Transformer.reg4b"  1        0.0        0.0        0.0        0.0     0.0     0.0        0.0        0.0        0.0        0.0
"Transformer.reg4b"  2        0.0        0.0        0.0        0.0     0.0     0.0
"Transformer.reg4c"  1        0.0        0.0        0.0        0.0     0.0     0.0        0.0        0.0        0.0        0.0
"Transformer.reg4c"  2        0.0        0.0        0.0        0.0     0.0     0.0
"Load.s1a"           1        0.0        0.0        0.0        0.0     0.0     0.0
"Load.s2b"           1        0.0        0.0        0.0        0.0     0.0     0.0
"Load.s4c"           1        0.0        0.0        0.0        0.0     0.0     0.0
"Load.s5c"           1        0.0        0.0        0.0        0.0     0.0     0.0
"Load.s6c"           1        0.0        0.0        0.0        0.0     0.0     0.0
"Load.s7a"           1        0.0        0.0        0.0        0.0     0.0     0.0
"Load.s9a"           1        0.0        0.0        0.0        0.0     0.0     0.0
"Load.s10a"          1        0.0        0.0        0.0        0.0     0.0     0.0
"Load.s11a"          1        0.0        0.0        0.0        0.0     0.0     0.0
"Load.s12b"          1        0.0        0.0        0.0        0.0     0.0     0.0
"Load.s16c"          1        0.0        0.0        0.0        0.0     0.0     0.0
"Load.s17c"          1        0.0        0.0        0.0        0.0     0.0     0.0
"Load.s19a"          1        0.0        0.0        0.0        0.0     0.0     0.0
"Load.s20a"          1        0.0        0.0        0.0        0.0     0.0     0.0
"Load.s22b"          1        0.0        0.0        0.0        0.0     0.0     0.0
"Load.s24c"          1        0.0        0.0        0.0        0.0     0.0     0.0
"Load.s28a"          1        0.0        0.0        0.0        0.0     0.0     0.0
"Load.s29a"          1        0.0        0.0        0.0        0.0     0.0     0.0
"Load.s30c"          1        0.0        0.0        0.0        0.0     0.0     0.0
"Load.s31c"          1        0.0        0.0        0.0        0.0     0.0     0.0
"Load.s32c"          1        0.0        0.0        0.0        0.0     0.0     0.0
"Load.s33a"          1        0.0        0.0        0.0        0.0     0.0     0.0
"Load.s34c"          1        0.0        0.0        0.0        0.0     0.0     0.0
"Load.s35a"          1        0.0        0.0        0.0        0.0     0.0     0.0
"Load.s37a"          1        0.0        0.0        0.0        0.0     0.0     0.0
"Load.s38b"          1        0.0        0.0        0.0        0.0     0.0     0.0
"Load.s39b"          1        0.0        0.0        0.0        0.0     0.0     0.0
"Load.s41c"          1        0.0        0.0        0.0        0.0     0.0     0.0
"Load.s42a"          1        0.0        0.0        0.0        0.0     0.0     0.0
"Load.s43b"          1        0.0        0.0        0.0        0.0     0.0     0.0
"Load.s45a"          1        0.0        0.0        0.0        0.0     0.0     0.0
"Load.s46a"          1        0.0        0.0        0.0        0.0     0.0     0.0
"Load.s47"           1        0.1        0.1       -0.0       -0.0    -0.0     0.0
"Load.s48"           1        0.2        0.2        0.0        0.0     0.0     0.0
"Load.s49a"          1        0.0        0.0        0.0        0.0     0.0     0.0
"Load.s49b"          1        0.0        0.0        0.0        0.0     0.0     0.0
"Load.s49c"          1        0.0        0.0        0.0        0.0     0.0     0.0
"Load.s50c"          1        0.0        0.0        0.0        0.0     0.0     0.0
"Load.s51a"          1        0.0        0.0        0.0        0.0     0.0     0.0
"Load.s52a"          1        0.0        0.0        0.0        0.0     0.0     0.0
"Load.s53a"          1        0.0        0.0        0.0        0.0     0.0     0.0
"Load.s55a"          1        0.0        0.0        0.0        0.0     0.0     0.0
"Load.s56b"          1        0.0        0.0        0.0        0.0     0.0     0.0
"Load.s58b"          1        0.0        0.0        0.0        0.0     0.0     0.0
"Load.s59b"          1        0.0        0.0        0.0        0.0     0.0     0.0
"Load.s60a"          1        0.0        0.0        0.0        0.0     0.0     0.0
"Load.s62c"          1        0.0        0.0        0.0        0.0     0.0     0.0
"Load.s63a"          1        0.0        0.0        0.0        0.0     0.0     0.0
"Load.s64b"          1        0.0        0.0        0.0        0.0     0.0     0.0
"Load.s65a"          1        0.0        0.0        0.0        0.0     0.0     0.0
"Load.s65b"          1        0.0        0.0        0.0        0.0     0.0     0.0
"Load.s65c"          1        0.0        0.0        0.0        0.0     0.0     0.0
"Load.s66c"          1        0.0        0.0        0.0        0.0     0.0     0.0
"Load.s68a"          1        0.0        0.0        0.0        0.0     0.0     0.0
"Load.s69a"          1        0.0        0.0        0.0        0.0     0.0     0.0
"Load.s70a"          1        0.0        0.0        0.0        0.0     0.0     0.0
"Load.s71a"          1        0.0        0.0        0.0        0.0     0.0     0.0
"Load.s73c"          1        0.0        0.0        0.0        0.0     0.0     0.0
"Load.s74c"          1        0.0        0.0        0.0        0.0     0.0     0.0
"Load.s75c"          1        0.0        0.0        0.0        0.0     0.0     0.0
"Load.s76a"          1        0.0        0.0        0.0        0.0     0.0     0.0
"Load.s76b"          1        0.0        0.0        0.0        0.0     0.0     0.0
"Load.s76c"          1        0.0        0.0        0.0        0.0     0.0     0.0
"Load.s77b"          1        0.0        0.0        0.0        0.0     0.0     0.0
"Load.s79a"          1        0.0        0.0        0.0        0.0     0.0     0.0
"Load.s80b"          1        0.0        0.0        0.0        0.0     0.0     0.0
"Load.s82a"          1        0.0        0.0        0.0        0.0     0.0     0.0
"Load.s83c"          1        0.0        0.0        0.0        0.0     0.0     0.0
"Load.s84c"          1        0.0        0.0        0.0        0.0     0.0     0.0
"Load.s85c"          1        0.0        0.0        0.0        0.0     0.0     0.0
"Load.s86b"          1        0.0        0.0        0.0        0.0     0.0     0.0
"Load.s87b"          1        0.0        0.0        0.0        0.0     0.0     0.0
"Load.s88a"          1        0.0        0.0        0.0        0.0     0.0     0.0
"Load.s90b"          1        0.0        0.0        0.0        0.0     0.0     0.0
"Load.s92c"          1        0.0        0.0        0.0        0.0     0.0     0.0
"Load.s94a"          1        0.0        0.0        0.0        0.0     0.0     0.0
"Load.s95b"          1        0.0        0.0        0.0        0.0     0.0     0.0
"Load.s96b"          1        0.0        0.0        0.0        0.0     0.0     0.0
"Load.s98a"          1        0.0        0.0        0.0        0.0     0.0     0.0
"Load.s99b"          1        0.0        0.0        0.0        0.0     0.0     0.0
"Load.s100c"         1        0.0        0.0        0.0        0.0     0.0     0.0
"Load.s102c"         1        0.0        0.0        0.0        0.0     0.0     0.0
"Load.s103c"         1        0.0        0.0        0.0        0.0     0.0     0.0
"Load.s104c"         1        0.0        0.0        0.0        0.0     0.0     0.0
"Load.s106b"         1        0.0        0.0        0.0        0.0     0.0     0.0
"Load.s107b"         1        0.0        0.0        0.0        0.0     0.0     0.0
"Load.s109a"         1        0.0        0.0        0.0        0.0     0.0     0.0
"Load.s111a"         1        0.0        0.0        0.0        0.0     0.0     0.0
"Load.s112a"         1        0.0        0.0        0.0        0.0     0.0     0.0
"Load.s113a"         1        0.0        0.0        0.0        0.0     0.0     0.0
"Load.s114a"         1        0.0        0.0        0.0        0.0     0.0     0.0

Total Circuit Losses =    0.1 +j    0.2
